/*--------------------------------*- C++ -*----------------------------------*\
| =========                 |                                                 |
| \\      /  F ield         | OpenFOAM: The Open Source CFD Toolbox           |
|  \\    /   O peration     | Version:  v2406                                 |
|   \\  /    A nd           | Website:  www.openfoam.com                      |
|    \\/     M anipulation  |                                                 |
\*---------------------------------------------------------------------------*/
FoamFile
{
    version     2.0;
    format      ascii;
    class       dictionary;
    object      setFieldsDict;
}
// * * * * * * * * * * * * * * * * * * * * * * * * * * * * * * * * * * * * * //

defaultFieldValues
(
    volScalarFieldValue alpha.water 0
);

regions
(
    boxToCell
    {
        box (-500 0 -500) (500 100 500);
        fieldValues
        (
            volScalarFieldValue alpha.water 1
        );
    }

        boxToCell
    {
        box ( -20  -100  -20) ( 40  110  40);
        fieldValues
        (
            volScalarFieldValue alpha.water 0
        );
    }
);

// ************************************************************************* //
