/*--------------------------------*- C++ -*----------------------------------*\
| =========                 |                                                 |
| \\      /  F ield         | OpenFOAM: The Open Source CFD Toolbox           |
|  \\    /   O peration     | Version:  v2406                                 |
|   \\  /    A nd           | Website:  www.openfoam.com                      |
|    \\/     M anipulation  |                                                 |
\*---------------------------------------------------------------------------*/
FoamFile
{
    version     2.0;
    format      ascii;
    class       dictionary;
    object      dynamicMeshDict;
}
// * * * * * * * * * * * * * * * * * * * * * * * * * * * * * * * * * * * * * //

dynamicFvMesh       dynamicOversetFvMesh;

solver          multiSolidBodyMotionSolver;

multiSolidBodyMotionSolverCoeffs
{


    movingZone1
    {
        solidBodyMotionFunction linearMotion;
        linearMotionCoeffs
        {
            velocity    (0 1000 0);
        }
    }
}


// ************************************************************************* //
